*** Title: "E:\WORCK\LR_2_SH\simulation\tb_tgl_trig\netlistLR_2_SH_NID.dcv"
*** Generated by:  Symica
*** © 2009-2014 Symica. All rights reserved. (www.symica.com)
*** Generated for: SymSpice                                     
*** Generated on:  Tue Feb 10 19:29:31 2026                     
*******************************************************************

simulator lang=local



