*** Title: "D:\L_1\LR_1\LR_SSHMT_!\LR_2_SH\simulation\TB_CMOS\netlistLR_2_SH.dcv"
*** Generated by:  Symica
*** © 2009-2014 Symica. All rights reserved. (www.symica.com)
*** Generated for: SymSpice                                     
*** Generated on:  Wed Nov 05 11:21:18 2025                     
*******************************************************************

simulator lang=local



