*** Title: "E:\WORCK\LR_2_SH\simulation\tb_pos_neg_s\netlistLR_2_SH_NID.dcv"
*** Generated by:  Symica
*** © 2009-2014 Symica. All rights reserved. (www.symica.com)
*** Generated for: SymSpice                                     
*** Generated on:  Sat Feb 14 00:04:00 2026                     
*******************************************************************

simulator lang=local



