*** Title: "E:\WORCK\LR_2_SH\simulation\tb_spec_fun\netlistLR_2_SH_NID.dcv"
*** Generated by:  Symica
*** © 2009-2014 Symica. All rights reserved. (www.symica.com)
*** Generated for: SymSpice                                     
*** Generated on:  Wed Feb 11 22:25:13 2026                     
*******************************************************************

simulator lang=local



