*** Title: "E:\Новая папка\LR_2_SH\simulation\tb_cmos_d\netlistLR_2_SH_NID.cir"
*** Generated by:  Symica
*** © 2009-2014 Symica. All rights reserved. (www.symica.com)
*** Generated for: SymSpice                                     
*** Generated on:  Sun Nov 09 22:35:41 2025                     
*******************************************************************
*** This is a root file of the project
*******************************************************************

simulator lang=local

global gnd vdd! 

include "E:\Symica Free\lib\models\mos.lib"



