*** Title: "D:\L_1\LR_1\LR_SSHMT_!\LR_2_SH\LR_2_Sch\simulation\Z_3\netlistLR_2_Sch.dcv"
*** Generated by:  Symica
*** © 2009-2014 Symica. All rights reserved. (www.symica.com)
*** Generated for: SymSpice                                     
*** Generated on:  Sat Oct 18 14:30:20 2025                     
*******************************************************************

simulator lang=local



