*** Title: "D:\L_1\LR_1\LR_SSHMT_!\LR_2_SH\simulation\tb_not\netlistLR_2_SH.dcv"
*** Generated by:  Symica
*** © 2009-2014 Symica. All rights reserved. (www.symica.com)
*** Generated for: SymSpice                                     
*** Generated on:  Wed Sep 24 10:05:09 2025                     
*******************************************************************

simulator lang=local



