*** Title: "E:\WORCK\LR_2_SH\simulation\SUM_3\netlistLR_2_SH_NID.dcv"
*** Generated by:  Symica
*** © 2009-2014 Symica. All rights reserved. (www.symica.com)
*** Generated for: SymSpice                                     
*** Generated on:  Thu Feb 12 23:31:07 2026                     
*******************************************************************

simulator lang=local



