*** Title: "E:\Новая папка\LR_2_SH\simulation\tb_CPL_summ\netlistLR_2_SH_NID.dcv"
*** Generated by:  Symica
*** © 2009-2014 Symica. All rights reserved. (www.symica.com)
*** Generated for: SymSpice                                     
*** Generated on:  Fri Feb 06 22:42:41 2026                     
*******************************************************************

simulator lang=local



