*** Title: "E:\Новая папка\LR_2_SH\simulation\tb_nand3\netlistLR_2_SH_NID.dcv"
*** Generated by:  Symica
*** © 2009-2014 Symica. All rights reserved. (www.symica.com)
*** Generated for: SymSpice                                     
*** Generated on:  Tue Nov 18 22:05:01 2025                     
*******************************************************************

simulator lang=local



