*** Title: "E:\WORCK\LR_2_SH\simulation\tb_5_mult_reg\netlistLR_2_SH_NID.dcv"
*** Generated by:  Symica
*** © 2009-2014 Symica. All rights reserved. (www.symica.com)
*** Generated for: SymSpice                                     
*** Generated on:  Fri Feb 13 13:35:15 2026                     
*******************************************************************

simulator lang=local



