*** Title: "E:\Новая папка\LR_2_SH\MEM\simulation\STAT_mem\netlistMEM.dcv"
*** Generated by:  Symica
*** © 2009-2014 Symica. All rights reserved. (www.symica.com)
*** Generated for: SymSpice                                     
*** Generated on:  Tue Dec 02 21:53:42 2025                     
*******************************************************************

simulator lang=local



